@<TRIPOS>MOLECULE
Stylo
36	236	1
SMALL
NO_CHARGES

@<TRIPOS>ATOM
1	BOYER_AGAMEMNON_1680	-1.14175988827508	1.47937984904116	0.69668862043088	He	1	0
2	BOYER_AMOURSJUPITERSEMELE_1666	-0.532257471393636	0.790054445473822	0.0892977665471014	He	1	0
3	BOYER_ARISTODEME_1648	-0.281777781135275	1.21669087729436	-0.178061737701707	He	1	0
4	BOYER_ARTAXERCE_1683	-0.73458509066449	1.03433360616329	0.41849323625234	He	1	0
5	CORNEILLEP_ANDROMEDE_1651	-0.225572414853466	1.10864186257662	0.0548297640058634	Na	1	0
6	CORNEILLEP_CID_1682	0.116081125286948	1.05148243731372	-0.227800343326601	Na	1	0
7	CORNEILLEP_ILLUSIONCOMIQUE_1639	0.181811700369703	0.707502804306363	-0.109798735123389	Na	1	0
8	CORNEILLEP_MEDEE_1682	0.0116751315250011	1.04252408866351	0.0246620881344918	Na	1	0
9	CORNEILLET_AMOURALAMODE_1651	0.0718878370952152	0.0392993987799953	-0.459776970794438	O	1	0
10	CORNEILLET_ARIANE_1672	0.162893219247607	-0.189502393835254	-0.995923682672168	O	1	0
11	CORNEILLET_BRADAMANTE_1695	0.0748433988740745	-0.0719685108270244	-1.12438983178787	O	1	0
12	CORNEILLET_GEOLIERDESOISMEME_1655	0.120455051345685	0.218555775199268	-0.56631659346335	O	1	0
13	DURYER_CLARIGENE_1639	0.894888802278472	0.606030030704535	0.0222224167606073	Au	1	0
14	DURYER_CLITOPHON_1632	0.670256595625551	0.969430858676592	0.0483324890801478	Au	1	0
15	DURYER_DYNAMIS_1653	0.640779595492847	0.492849018286812	-0.12424182092284	Au	1	0
16	DURYER_ESTHER_1644	0.632617190097083	0.614067326660478	-0.326433814936735	Au	1	0
17	MOLIERE_AMPHITRYON_1668	-0.510198953339248	0.00829501633228045	-0.612812763470197	P	1	0
18	MOLIERE_DOMGARCIEDENAVARRE_1682	-0.251367958216013	0.0761433352364659	-0.833883580040217	P	1	0
19	MOLIERE_MISANTHROPE_1667	-0.580896523378748	-0.18067911511313	-0.864267904952598	P	1	0
20	MOLIERE_TARTUFFE_1669	-0.403184593381682	-0.247238625824145	-0.687928690987291	P	1	0
21	RACINE_BERENICE_1671	-1.48337870072543	1.87166849899994	0.991290621707157	Cl	1	0
22	RACINE_ESTHER_1689	-1.07688957841337	1.77108291138876	0.548961898638052	Cl	1	0
23	RACINE_IPHIGENIE_1675	-1.35123177497123	1.76156925273089	0.801235198473685	Cl	1	0
24	RACINE_PHEDRE_1697	-1.1316096492027	1.76272586154868	0.826062547529229	Cl	1	0
25	ROTROU_COSROES_1649	-0.12020957578014	0.815741729296681	0.36265958814905	He	1	0
26	ROTROU_DEUXPUCELLES_1639	0.203548635202947	1.19488801594857	0.195077840807225	He	1	0
27	ROTROU_DOMBERNARDDECABRERE_1647	0.10052025196485	0.741728165679039	0.236214475151738	He	1	0
28	ROTROU_HERCULEMOURANT_1636	-0.155533339734412	1.4517827367471	0.404648641937369	He	1	0
29	SCARRON_DOMJAPHETDARMENIE_1653	0.67391173609117	-0.409771532180096	-0.169702521492691	Na	1	0
30	SCARRON_ECOLIERDESALAMANQUE_1655	0.877658506842408	-0.53291002260123	-0.313107225159211	Na	1	0
31	SCARRON_FAUSSEAPPARENCE_1663	0.880022297549295	-0.265379083310659	-0.276746666571581	Na	1	0
32	SCARRON_GARDIENDESOIMEME_1654	0.630058479634339	-0.331459649202928	-0.39313090453425	Na	1	0
33	SCUDERY_MORTDECESAR_1637	0.866031161683076	1.61704728540261	0.0363032699301252	O	1	0
34	SCUDERY_ORANTE_1636	1.01448404694318	1.25988290203513	-0.0448235387283904	O	1	0
35	SCUDERY_PRINCEDEGUISE_1636	0.842917153629779	1.37005360098357	0.00403729614244482	O	1	0
36	SCUDERY_VASSALGENEREUX_1636	1.07874744512867	1.45847178476557	-0.0747191977028365	O	1	0
@<TRIPOS>BOND
1	1	3	1
2	1	4	1
3	1	21	1
4	1	22	1
5	1	23	1
6	1	24	1
7	2	3	1
8	2	4	1
9	2	5	1
10	2	7	1
11	2	12	1
12	2	18	1
13	2	25	1
14	2	27	1
15	1	3	1
16	2	3	1
17	3	5	1
18	3	6	1
19	3	8	1
20	3	12	1
21	3	23	1
22	3	26	1
23	1	4	1
24	2	4	1
25	4	6	1
26	4	7	1
27	4	25	1
28	2	5	1
29	3	5	1
30	5	6	1
31	5	7	1
32	5	8	1
33	5	18	1
34	5	22	1
35	5	27	1
36	5	33	1
37	3	6	1
38	4	6	1
39	5	6	1
40	6	7	1
41	6	8	1
42	6	12	1
43	6	30	1
44	6	35	1
45	2	7	1
46	4	7	1
47	5	7	1
48	6	7	1
49	7	8	1
50	7	9	1
51	7	13	1
52	7	14	1
53	7	17	1
54	7	18	1
55	7	26	1
56	7	27	1
57	7	29	1
58	7	31	1
59	7	34	1
60	3	8	1
61	5	8	1
62	6	8	1
63	7	8	1
64	8	14	1
65	8	25	1
66	8	26	1
67	8	28	1
68	7	9	1
69	9	10	1
70	9	11	1
71	9	12	1
72	9	19	1
73	9	20	1
74	9	29	1
75	9	31	1
76	9	32	1
77	9	10	1
78	10	11	1
79	10	12	1
80	10	18	1
81	9	11	1
82	10	11	1
83	11	12	1
84	11	18	1
85	2	12	1
86	3	12	1
87	6	12	1
88	9	12	1
89	10	12	1
90	11	12	1
91	12	15	1
92	12	16	1
93	12	18	1
94	12	27	1
95	12	32	1
96	7	13	1
97	13	14	1
98	13	15	1
99	13	16	1
100	13	31	1
101	13	35	1
102	7	14	1
103	8	14	1
104	13	14	1
105	14	26	1
106	14	28	1
107	14	33	1
108	14	34	1
109	14	35	1
110	14	36	1
111	12	15	1
112	13	15	1
113	15	16	1
114	15	25	1
115	15	32	1
116	15	35	1
117	12	16	1
118	13	16	1
119	15	16	1
120	16	25	1
121	16	27	1
122	16	36	1
123	7	17	1
124	17	18	1
125	17	19	1
126	17	20	1
127	2	18	1
128	5	18	1
129	7	18	1
130	10	18	1
131	11	18	1
132	12	18	1
133	17	18	1
134	18	19	1
135	18	20	1
136	9	19	1
137	17	19	1
138	18	19	1
139	19	20	1
140	9	20	1
141	17	20	1
142	18	20	1
143	19	20	1
144	20	32	1
145	1	21	1
146	21	23	1
147	21	24	1
148	1	22	1
149	5	22	1
150	22	23	1
151	22	24	1
152	1	23	1
153	3	23	1
154	21	23	1
155	22	23	1
156	23	24	1
157	1	24	1
158	21	24	1
159	22	24	1
160	23	24	1
161	24	28	1
162	2	25	1
163	4	25	1
164	8	25	1
165	15	25	1
166	16	25	1
167	25	27	1
168	25	36	1
169	3	26	1
170	7	26	1
171	8	26	1
172	14	26	1
173	26	27	1
174	26	28	1
175	26	34	1
176	26	35	1
177	2	27	1
178	5	27	1
179	7	27	1
180	12	27	1
181	16	27	1
182	25	27	1
183	26	27	1
184	8	28	1
185	14	28	1
186	24	28	1
187	26	28	1
188	7	29	1
189	9	29	1
190	29	30	1
191	29	31	1
192	29	32	1
193	6	30	1
194	29	30	1
195	30	31	1
196	30	32	1
197	7	31	1
198	9	31	1
199	13	31	1
200	29	31	1
201	30	31	1
202	31	32	1
203	9	32	1
204	12	32	1
205	15	32	1
206	20	32	1
207	29	32	1
208	30	32	1
209	31	32	1
210	32	34	1
211	5	33	1
212	14	33	1
213	33	34	1
214	33	35	1
215	33	36	1
216	7	34	1
217	14	34	1
218	26	34	1
219	32	34	1
220	33	34	1
221	34	35	1
222	34	36	1
223	6	35	1
224	13	35	1
225	14	35	1
226	15	35	1
227	26	35	1
228	33	35	1
229	34	35	1
230	35	36	1
231	14	36	1
232	16	36	1
233	25	36	1
234	33	36	1
235	34	36	1
236	35	36	1
